FoamFile {
    version 2.0;
    format ascii;
    class dictionary;
    object fvSolution;
}
solvers {
    U {
        solver smoothSolver;
        tolerance 1e-08;
        relTol 0.01;
        smoother GaussSeidel;
    }
    p {
        solver GAMG;
        tolerance 1e-08;
        relTol 0.05;
        smoother GaussSeidel;
        nPreSweeps 2;
        nPostSweeps 1;
        cacheAgglomeration on;
        agglomerator faceAreaPair;
        nCellsInCoarsestLevel 10;
        mergeLevels 1;
    }
    k {
        solver smoothSolver;
        tolerance 1e-08;
        relTol 0.01;
        smoother GaussSeidel;
    }
    omega {
        solver smoothSolver;
        tolerance 1e-08;
        relTol 0.01;
        smoother GaussSeidel;
    }
}
relaxationFactors {
    fields {
        p 0.2;
    }
    equations {
        U 0.4;
        k 0.4;
        omega 0.4;
    }
}
SIMPLE {
    nNonOrthogonalCorrectors 2;
    pRefCell 0;
    pRefValue 0.0;
    residualControl {
        U 1e-05;
        "p.*" 1e-05;
        k 1e-05;
        omega 1e-05;
    }
}
potentialFlow {
    nNonOrthogonalCorrectors 5;
    pRefCell 0;
    pRefValue 0.0;
}
